2024_89_CemigReconfigurationCases/1_SEsCemig/SRS02/SRS02CargaMT_Dez.dss
new load.3009002602M1 bus1=BMT169893350.1.2.3.0,Phases=3,kv=13.800000000,kW=58.51388,pf=0.92,Vminpu=0.93,Vmaxpu=1.5,model=8,zipv=[0.5,0,0.5,1,0,0,0],daily=MT4_1,status=variable
new load.3009010635M1 bus1=BMT125584393.1.2.3.0,Phases=3,kv=13.800000000,kW=8.22336,pf=0.92,Vminpu=0.93,Vmaxpu=1.5,model=8,zipv=[0.5,0,0.5,1,0,0,0],daily=MT1_1,status=variable
new load.3009013470M1 bus1=BMT161717357.1.2.3.0,Phases=3,kv=13.800000000,kW=50.31308,pf=0.92,Vminpu=0.93,Vmaxpu=1.5,model=8,zipv=[0.5,0,0.5,1,0,0,0],daily=MT4_1,status=variable
new load.3009014341M1 bus1=BMT169893199.1.2.3.0,Phases=3,kv=13.800000000,kW=14.54804,pf=0.92,Vminpu=0.93,Vmaxpu=1.5,model=8,zipv=[0.5,0,0.5,1,0,0,0],daily=MT2_1,status=variable
new load.3009014343M1 bus1=BMT169893231.1.2.3.0,Phases=3,kv=13.800000000,kW=6.20952,pf=0.92,Vminpu=0.93,Vmaxpu=1.5,model=8,zipv=[0.5,0,0.5,1,0,0,0],daily=MT2_1,status=variable
new load.3009014545M1 bus1=BMT170575931.1.2.3.0,Phases=3,kv=13.800000000,kW=9.24884,pf=0.92,Vminpu=0.93,Vmaxpu=1.5,model=8,zipv=[0.5,0,0.5,1,0,0,0],daily=MT1_1,status=variable
new load.3009014903M1 bus1=BMT125580340.1.2.3.0,Phases=3,kv=13.800000000,kW=14.40682,pf=0.92,Vminpu=0.93,Vmaxpu=1.5,model=8,zipv=[0.5,0,0.5,1,0,0,0],daily=MT4_1,status=variable
new load.3009015426M1 bus1=BMT161988899.1.2.3.0,Phases=3,kv=13.800000000,kW=56.35286,pf=0.92,Vminpu=0.93,Vmaxpu=1.5,model=8,zipv=[0.5,0,0.5,1,0,0,0],daily=MT4_1,status=variable
new load.3009017024M1 bus1=BMT125583770.1.2.3.0,Phases=3,kv=13.800000000,kW=6.66916,pf=0.92,Vminpu=0.93,Vmaxpu=1.5,model=8,zipv=[0.5,0,0.5,1,0,0,0],daily=MT3_1,status=variable
new load.3009017865M1 bus1=BMT169893110.1.2.3.0,Phases=3,kv=13.800000000,kW=83.3646,pf=0.92,Vminpu=0.93,Vmaxpu=1.5,model=8,zipv=[0.5,0,0.5,1,0,0,0],daily=MT3_1,status=variable
new load.3009018006M1 bus1=BMT177960381.1.2.3.0,Phases=3,kv=13.800000000,kW=119.5713,pf=0.92,Vminpu=0.93,Vmaxpu=1.5,model=8,zipv=[0.5,0,0.5,1,0,0,0],daily=MT1_1,status=variable
new load.3009018199M1 bus1=BMT169893195.1.2.3.0,Phases=3,kv=13.800000000,kW=5.79556,pf=0.92,Vminpu=0.93,Vmaxpu=1.5,model=8,zipv=[0.5,0,0.5,1,0,0,0],daily=MT2_1,status=variable
new load.3009019643M1 bus1=BMT172835939.1.2.3.0,Phases=3,kv=13.800000000,kW=28.84222,pf=0.92,Vminpu=0.93,Vmaxpu=1.5,model=8,zipv=[0.5,0,0.5,1,0,0,0],daily=MT1_1,status=variable
new load.3009019645M1 bus1=BMT125583539.1.2.3.0,Phases=3,kv=13.800000000,kW=15.96736,pf=0.92,Vminpu=0.93,Vmaxpu=1.5,model=8,zipv=[0.5,0,0.5,1,0,0,0],daily=MT2_1,status=variable
new load.3009019648M1 bus1=BMT125584071.1.2.3.0,Phases=3,kv=13.800000000,kW=0.7305,pf=0.92,Vminpu=0.93,Vmaxpu=1.5,model=8,zipv=[0.5,0,0.5,1,0,0,0],daily=MT1_1,status=variable
new load.3009019724M1 bus1=BMT169893428.1.2.3.0,Phases=3,kv=13.800000000,kW=4.96762,pf=0.92,Vminpu=0.93,Vmaxpu=1.5,model=8,zipv=[0.5,0,0.5,1,0,0,0],daily=MT2_1,status=variable
new load.3009019823M1 bus1=BMT169893114.1.2.3.0,Phases=3,kv=13.800000000,kW=14.81414,pf=0.92,Vminpu=0.93,Vmaxpu=1.5,model=8,zipv=[0.5,0,0.5,1,0,0,0],daily=MT1_1,status=variable
new load.3009019855M1 bus1=BMT138960469.1.2.3.0,Phases=3,kv=13.800000000,kW=2.6605,pf=0.92,Vminpu=0.93,Vmaxpu=1.5,model=8,zipv=[0.5,0,0.5,1,0,0,0],daily=MT1_1,status=variable
new load.3009020293M1 bus1=BMT169958538.1.2.3.0,Phases=3,kv=13.800000000,kW=34.00456,pf=0.92,Vminpu=0.93,Vmaxpu=1.5,model=8,zipv=[0.5,0,0.5,1,0,0,0],daily=MT2_1,status=variable
new load.3009020757M1 bus1=BMT176156222.1.2.3.0,Phases=3,kv=13.800000000,kW=22.49332,pf=0.92,Vminpu=0.93,Vmaxpu=1.5,model=8,zipv=[0.5,0,0.5,1,0,0,0],daily=MT1_1,status=variable
new load.3009021394M1 bus1=BMT181296429.1.2.3.0,Phases=3,kv=13.800000000,kW=4.84934,pf=0.92,Vminpu=0.93,Vmaxpu=1.5,model=8,zipv=[0.5,0,0.5,1,0,0,0],daily=MT2_1,status=variable
new load.3009021583M1 bus1=BMT125570610.1.2.3.0,Phases=3,kv=13.800000000,kW=0.48372,pf=0.92,Vminpu=0.93,Vmaxpu=1.5,model=8,zipv=[0.5,0,0.5,1,0,0,0],daily=MT1_1,status=variable
new load.3009021903M1 bus1=BMT169893129.1.2.3.0,Phases=3,kv=13.800000000,kW=51.396,pf=0.92,Vminpu=0.93,Vmaxpu=1.5,model=8,zipv=[0.5,0,0.5,1,0,0,0],daily=MT1_1,status=variable
new load.3009022092M1 bus1=BMT161702495.1.2.3.0,Phases=3,kv=13.800000000,kW=51.01914,pf=0.92,Vminpu=0.93,Vmaxpu=1.5,model=8,zipv=[0.5,0,0.5,1,0,0,0],daily=MT3_1,status=variable
new load.3009900292M1 bus1=BMT150345335.1.2.3.0,Phases=3,kv=13.800000000,kW=500.18488,pf=0.92,Vminpu=0.93,Vmaxpu=1.5,model=8,zipv=[0.5,0,0.5,1,0,0,0],daily=MT5_1,status=variable
new load.3010000661M1 bus1=BMT125582916.1.2.3.0,Phases=3,kv=13.800000000,kW=10.52662,pf=0.92,Vminpu=0.93,Vmaxpu=1.5,model=8,zipv=[0.5,0,0.5,1,0,0,0],daily=MT2_1,status=variable
new load.3010181930M1 bus1=BMT125557779.1.2.3.0,Phases=3,kv=13.800000000,kW=20.89672,pf=0.92,Vminpu=0.93,Vmaxpu=1.5,model=8,zipv=[0.5,0,0.5,1,0,0,0],daily=MT3_1,status=variable
new load.3010187368M1 bus1=BMT166721313.1.2.3.0,Phases=3,kv=13.800000000,kW=41.45598,pf=0.92,Vminpu=0.93,Vmaxpu=1.5,model=8,zipv=[0.5,0,0.5,1,0,0,0],daily=MT2_1,status=variable
new load.3010328273M1 bus1=BMT125578639.1.2.3.0,Phases=3,kv=13.800000000,kW=20.69842,pf=0.92,Vminpu=0.93,Vmaxpu=1.5,model=8,zipv=[0.5,0,0.5,1,0,0,0],daily=MT2_1,status=variable
new load.3010432893M1 bus1=BMT125584365.1.2.3.0,Phases=3,kv=13.800000000,kW=7.40708,pf=0.92,Vminpu=0.93,Vmaxpu=1.5,model=8,zipv=[0.5,0,0.5,1,0,0,0],daily=MT1_1,status=variable
new load.3010447469M1 bus1=BMT125578492.1.2.3.0,Phases=3,kv=13.800000000,kW=87.47724,pf=0.92,Vminpu=0.93,Vmaxpu=1.5,model=8,zipv=[0.5,0,0.5,1,0,0,0],daily=MT3_1,status=variable
new load.3010497681M1 bus1=BMT150345333.1.2.3.0,Phases=3,kv=13.800000000,kW=96.67514,pf=0.92,Vminpu=0.93,Vmaxpu=1.5,model=8,zipv=[0.5,0,0.5,1,0,0,0],daily=MT3_1,status=variable
new load.3010523277M1 bus1=BMT166720710.1.2.3.0,Phases=3,kv=13.800000000,kW=45.3815,pf=0.92,Vminpu=0.93,Vmaxpu=1.5,model=8,zipv=[0.5,0,0.5,1,0,0,0],daily=MT4_1,status=variable
new load.3010605814M1 bus1=BMT125584351.1.2.3.0,Phases=3,kv=13.800000000,kW=2.05584,pf=0.92,Vminpu=0.93,Vmaxpu=1.5,model=8,zipv=[0.5,0,0.5,1,0,0,0],daily=MT1_1,status=variable
new load.3010736198M1 bus1=BMT125583196.1.2.3.0,Phases=3,kv=13.800000000,kW=5.49106,pf=0.92,Vminpu=0.93,Vmaxpu=1.5,model=8,zipv=[0.5,0,0.5,1,0,0,0],daily=MT1_1,status=variable
new load.3010825900M1 bus1=BMT169893165.1.2.3.0,Phases=3,kv=13.800000000,kW=160.96858,pf=0.92,Vminpu=0.93,Vmaxpu=1.5,model=8,zipv=[0.5,0,0.5,1,0,0,0],daily=MT4_1,status=variable
new load.3011188434M1 bus1=BMT125583266.1.2.3.0,Phases=3,kv=13.800000000,kW=12.06422,pf=0.92,Vminpu=0.93,Vmaxpu=1.5,model=8,zipv=[0.5,0,0.5,1,0,0,0],daily=MT2_1,status=variable
new load.3011193414M1 bus1=BMT172566188.1.2.3.0,Phases=3,kv=13.800000000,kW=39.68074,pf=0.92,Vminpu=0.93,Vmaxpu=1.5,model=8,zipv=[0.5,0,0.5,1,0,0,0],daily=MT1_1,status=variable
new load.3011212253M1 bus1=BMT182851711.1.2.3.0,Phases=3,kv=13.800000000,kW=1306.81802,pf=0.92,Vminpu=0.93,Vmaxpu=1.5,model=8,zipv=[0.5,0,0.5,1,0,0,0],daily=MT5_1,status=variable
new load.3011262106M1 bus1=BMT172674005.1.2.3.0,Phases=3,kv=13.800000000,kW=49.15876,pf=0.92,Vminpu=0.93,Vmaxpu=1.5,model=8,zipv=[0.5,0,0.5,1,0,0,0],daily=MT1_1,status=variable
new load.3011544061M1 bus1=BMT135343289.1.2.3.0,Phases=3,kv=13.800000000,kW=16.4996,pf=0.92,Vminpu=0.93,Vmaxpu=1.5,model=8,zipv=[0.5,0,0.5,1,0,0,0],daily=MT2_1,status=variable
new load.3011642667M1 bus1=BMT134142572.1.2.3.0,Phases=3,kv=13.800000000,kW=9.28472,pf=0.92,Vminpu=0.93,Vmaxpu=1.5,model=8,zipv=[0.5,0,0.5,1,0,0,0],daily=MT2_1,status=variable
new load.3011726847M1 bus1=BMT140582782.1.2.3.0,Phases=3,kv=13.800000000,kW=13.48354,pf=0.92,Vminpu=0.93,Vmaxpu=1.5,model=8,zipv=[0.5,0,0.5,1,0,0,0],daily=MT2_1,status=variable
new load.3011743415M1 bus1=BMT125584694.1.2.3.0,Phases=3,kv=13.800000000,kW=1.69834,pf=0.92,Vminpu=0.93,Vmaxpu=1.5,model=8,zipv=[0.5,0,0.5,1,0,0,0],daily=MT1_1,status=variable
new load.3011750779M1 bus1=BMT138740830.1.2.3.0,Phases=3,kv=13.800000000,kW=1.69304,pf=0.92,Vminpu=0.93,Vmaxpu=1.5,model=8,zipv=[0.5,0,0.5,1,0,0,0],daily=MT1_1,status=variable
new load.3011768387M1 bus1=BMT170631823.1.2.3.0,Phases=3,kv=13.800000000,kW=25.27474,pf=0.92,Vminpu=0.93,Vmaxpu=1.5,model=8,zipv=[0.5,0,0.5,1,0,0,0],daily=MT1_1,status=variable
new load.3011847076M1 bus1=BMT163164196.1.2.3.0,Phases=3,kv=13.800000000,kW=29.924,pf=0.92,Vminpu=0.93,Vmaxpu=1.5,model=8,zipv=[0.5,0,0.5,1,0,0,0],daily=MT2_1,status=variable
new load.3011877750M1 bus1=BMT169893105.1.2.3.0,Phases=3,kv=13.800000000,kW=5.29076,pf=0.92,Vminpu=0.93,Vmaxpu=1.5,model=8,zipv=[0.5,0,0.5,1,0,0,0],daily=MT1_1,status=variable
new load.3011881869M1 bus1=BMT166721398.1.2.3.0,Phases=3,kv=13.800000000,kW=35.56728,pf=0.92,Vminpu=0.93,Vmaxpu=1.5,model=8,zipv=[0.5,0,0.5,1,0,0,0],daily=MT2_1,status=variable
new load.3011970208M1 bus1=BMT177703074.1.2.3.0,Phases=3,kv=13.800000000,kW=0.07314,pf=0.92,Vminpu=0.93,Vmaxpu=1.5,model=8,zipv=[0.5,0,0.5,1,0,0,0],daily=MT1_1,status=variable
new load.3012154110M1 bus1=BMT173868697.1.2.3.0,Phases=3,kv=13.800000000,kW=0.86192,pf=0.92,Vminpu=0.93,Vmaxpu=1.5,model=8,zipv=[0.5,0,0.5,1,0,0,0],daily=MT1_1,status=variable
new load.3012182611M1 bus1=BMT160603187.1.2.3.0,Phases=3,kv=13.800000000,kW=15.02114,pf=0.92,Vminpu=0.93,Vmaxpu=1.5,model=8,zipv=[0.5,0,0.5,1,0,0,0],daily=MT2_1,status=variable
new load.3012183110M1 bus1=BMT166721126.1.2.3.0,Phases=3,kv=13.800000000,kW=22.25144,pf=0.92,Vminpu=0.93,Vmaxpu=1.5,model=8,zipv=[0.5,0,0.5,1,0,0,0],daily=MT1_1,status=variable
new load.3012185806M1 bus1=BMT177731497.1.2.3.0,Phases=3,kv=13.800000000,kW=1.94368,pf=0.92,Vminpu=0.93,Vmaxpu=1.5,model=8,zipv=[0.5,0,0.5,1,0,0,0],daily=MT1_1,status=variable
new load.3012229277M1 bus1=BMT162814230.1.2.3.0,Phases=3,kv=13.800000000,kW=19.87048,pf=0.92,Vminpu=0.93,Vmaxpu=1.5,model=8,zipv=[0.5,0,0.5,1,0,0,0],daily=MT2_1,status=variable
new load.3012393390M1 bus1=BMT152012777.1.2.3.0,Phases=3,kv=13.800000000,kW=139.6354,pf=0.92,Vminpu=0.93,Vmaxpu=1.5,model=8,zipv=[0.5,0,0.5,1,0,0,0],daily=MT4_1,status=variable
new load.3012640726M1 bus1=BMT172534178.1.2.3.0,Phases=3,kv=13.800000000,kW=181.13536,pf=0.92,Vminpu=0.93,Vmaxpu=1.5,model=8,zipv=[0.5,0,0.5,1,0,0,0],daily=MT4_1,status=variable
new load.3012718285M1 bus1=BMT155607891.1.2.3.0,Phases=3,kv=13.800000000,kW=48.96656,pf=0.92,Vminpu=0.93,Vmaxpu=1.5,model=8,zipv=[0.5,0,0.5,1,0,0,0],daily=MT2_1,status=variable
new load.3012829304M1 bus1=BMT155970541.1.2.3.0,Phases=3,kv=13.800000000,kW=45.57264,pf=0.92,Vminpu=0.93,Vmaxpu=1.5,model=8,zipv=[0.5,0,0.5,1,0,0,0],daily=MT3_1,status=variable
new load.3013034815M1 bus1=BMT161358672.1.2.3.0,Phases=3,kv=13.800000000,kW=1.80324,pf=0.92,Vminpu=0.93,Vmaxpu=1.5,model=8,zipv=[0.5,0,0.5,1,0,0,0],daily=MT1_1,status=variable
new load.3013117914M1 bus1=BMT156857367.1.2.3.0,Phases=3,kv=13.800000000,kW=63.69056,pf=0.92,Vminpu=0.93,Vmaxpu=1.5,model=8,zipv=[0.5,0,0.5,1,0,0,0],daily=MT3_1,status=variable
new load.3013165926M1 bus1=BMT169893193.1.2.3.0,Phases=3,kv=13.800000000,kW=90.29392,pf=0.92,Vminpu=0.93,Vmaxpu=1.5,model=8,zipv=[0.5,0,0.5,1,0,0,0],daily=MT2_1,status=variable
new load.3013222675M1 bus1=BMT150345340.1.2.3.0,Phases=3,kv=13.800000000,kW=492.87104,pf=0.92,Vminpu=0.93,Vmaxpu=1.5,model=8,zipv=[0.5,0,0.5,1,0,0,0],daily=MT5_1,status=variable
new load.3013453154M1 bus1=BMT166993353.1.2.3.0,Phases=3,kv=13.800000000,kW=4.73106,pf=0.92,Vminpu=0.93,Vmaxpu=1.5,model=8,zipv=[0.5,0,0.5,1,0,0,0],daily=MT2_1,status=variable
new load.3013458158M1 bus1=BMT170617960.1.2.3.0,Phases=3,kv=13.800000000,kW=20.91424,pf=0.92,Vminpu=0.93,Vmaxpu=1.5,model=8,zipv=[0.5,0,0.5,1,0,0,0],daily=MT1_1,status=variable
new load.3013578634M1 bus1=BMT125578548.1.2.3.0,Phases=3,kv=13.800000000,kW=4.23262,pf=0.92,Vminpu=0.93,Vmaxpu=1.5,model=8,zipv=[0.5,0,0.5,1,0,0,0],daily=MT1_1,status=variable
new load.3013713880M1 bus1=BMT176052265.1.2.3.0,Phases=3,kv=13.800000000,kW=36.5665,pf=0.92,Vminpu=0.93,Vmaxpu=1.5,model=8,zipv=[0.5,0,0.5,1,0,0,0],daily=MT3_1,status=variable
new load.3014784666M1 bus1=BMT170506675.1.2.3.0,Phases=3,kv=13.800000000,kW=70.97786,pf=0.92,Vminpu=0.93,Vmaxpu=1.5,model=8,zipv=[0.5,0,0.5,1,0,0,0],daily=MT2_1,status=variable
